33
Coordinates from ORCA-job Ibuprofeno\Ibuprofeno_B3LYP_def2-TZVP\Ibuprofeno_B3LYP_def2-TZVP.orcainp
  C   2.71489724207513      0.01023601491585      1.22871234875044
  C   2.40744628517284     -0.99440519154405      0.11553182087837
  C   0.90263809738197     -1.26014419673118      0.01774857404236
  C   2.95501796081254     -0.53344829532402     -1.25375773477105
  C   4.45843102865021     -0.41573214393350     -1.33288043531910
  C   5.26988875497244     -1.55251581848636     -1.28254292187022
  C   6.65516172118447     -1.45244480270384     -1.34663718085307
  C   7.27883729045762     -0.21039525485890     -1.47629177834139
  C   6.47308865000748      0.92821190744147     -1.53433031565887
  C   5.08814994742253      0.82464841381145     -1.45994100952803
  C   8.79457598742172     -0.11417133475069     -1.59583946089878
  C   9.25200888802753      0.21672827613206     -3.01936914849034
  C   9.36954001217354      0.87111858083243     -0.58194500392677
  O   9.12427122391136      0.59841129713300      0.71578787066204
  O   10.02469647836444      1.84707583794958     -0.85650424658361
  H   2.34143336966223     -0.35163922630983      2.18970243368128
  H   2.23611181234170      0.97291906456671      1.02411001945922
  H   3.78776067535534      0.18531750119056      1.33098626648812
  H   2.90066705955186     -1.94033976604926      0.36635444607099
  H   0.36400684504876     -0.34686807956683     -0.25343495809467
  H   0.50397940942496     -1.61133435702791      0.97254355890721
  H   0.68212335191143     -2.01640239692681     -0.73959999592144
  H   2.50246190547071      0.43064956606070     -1.50542548422955
  H   2.61616951513118     -1.24787861866986     -2.01095225741667
  H   4.81401871561186     -2.53237538513532     -1.19340498925221
  H   7.25952599088875     -2.35172859475417     -1.30403229543771
  H   6.92594656270594      1.90820257355811     -1.63875096973061
  H   4.48566706462402      1.72497513508826     -1.50460036693840
  H   9.20599933670847     -1.09018588051720     -1.31584407002405
  H   8.87698276314955      1.19072920235181     -3.33561944325965
  H   8.87332977641656     -0.53870646971089     -3.70875605704630
  H   10.34056190772833      0.23042711715149     -3.08431731616212
  H   8.57667437023232     -0.19623467518284      0.81393010081456
