33
Coordinates from ORCA-job Dexketoprofen\Dexketoprofen_PBE_def2-TZVP\Dexketoprofen_PBE_def2-TZVP.orcainp
  H   1.41901363700175     -0.11544057221240      0.69401408051215
  C   2.33834040319109     -0.08692930285898      0.08312739406838
  C   3.50930785223530     -0.60522669381174      0.92319875736133
  C   2.06566793795427     -0.99226251082753     -1.12119282542117
  O   0.95204516043414     -0.70404156471766     -1.84165682174579
  O   2.76114814352113     -1.92953929108163     -1.46375511483106
  C   2.53690894707408      1.35608250185257     -0.36632832658084
  C   3.54886882571508      1.68392070877785     -1.27994709107274
  C   3.76920149363125      3.01503545895736     -1.66407782780172
  C   2.96171799024128      4.03188219356518     -1.12363485595190
  C   1.93914610663669      3.71203597085418     -0.23576166659680
  C   1.72868422721344      2.38103534893389      0.14291112168373
  C   4.89166721678692      3.39897841331446     -2.57645409722960
  O   5.45647263713453      4.48919539021339     -2.43359213848623
  C   5.32557681310354      2.46283554857916     -3.65763327835881
  C   6.66593644364104      2.50036546091614     -4.08271358368045
  C   7.10020183752028      1.67859133213232     -5.12020119931178
  C   6.19400832491690      0.82819658795288     -5.76582891541697
  C   4.85547153995289      0.79820273939853     -5.36426081187039
  C   4.42337793178557      1.60223184556338     -4.30761560675865
  H   3.31962956954018     -1.63312860310190      1.26010552307787
  H   3.64203440331333      0.03442571293638      1.80599827647445
  H   4.44300586993406     -0.59932479375174      0.34469195470949
  H   0.48541730948878      0.06829061404653     -1.45990719514355
  H   4.19195208249697      0.89524921701833     -1.67664914085319
  H   3.14209377729284      5.06652764520270     -1.41894312838241
  H   1.30014482248746      4.49864436016253      0.16937648900854
  H   0.93082528544210      2.13480740542360      0.84767741863420
  H   7.36053479458174      3.17492030528002     -3.57927272862779
  H   8.14643038734085      1.70004664668350     -5.43070841866306
  H   6.53274922142627      0.19005265336418     -6.58424148373980
  H   4.14477215521271      0.14609809783531     -5.87498922327087
  H   3.37516685175139      1.58110117339915     -4.00574553573451
