33
Coordinates from ORCA-job Ibuprofeno\Ibuprofeno_PBE_def2-TZVP\Ibuprofeno_PBE_def2-TZVP.orcainp
  C   2.73528673350525      2.03802730379534      3.31362299395113
  C   2.43118254547783      0.66772351719163      2.70191216957812
  C   0.92722474899101      0.37839505539830      2.72215233210888
  C   2.97761442114525      0.54255577457271      1.25954465076725
  C   4.47929341931123      0.63994015059796      1.14833259705618
  C   5.30135685967033     -0.40801349776594      1.59052528159680
  C   6.69274218444936     -0.32023082548721      1.50490987114931
  C   7.31145525454860      0.81880168793133      0.96831387332704
  C   6.49339568925597      1.86917925279267      0.52290614747632
  C   5.10363963354471      1.77834078828968      0.61333165140870
  C   8.82636539554580      0.90196431388565      0.85371162160689
  C   9.31780353221956      0.95906769500573     -0.59650068053274
  C   9.40329241187649      2.04994813572673      1.68740500652314
  O   8.90037314530502      2.18615483282874      2.94042233170289
  O   10.28702499772787      2.80316923519958      1.32285909115043
  H   2.36576974915855      2.09467094472259      4.34851370826554
  H   2.24434465081572      2.83847901011381      2.73612336393832
  H   3.81507131595410      2.24695754782252      3.32777157087529
  H   2.93672285551711     -0.10195596636957      3.31283476999447
  H   0.38091353348806      1.11765647566288      2.11395252374746
  H   0.52925558127520      0.42733317116105      3.74688180369979
  H   0.70662193101253     -0.62083052030124      2.31700809883278
  H   2.51077021228559      1.32449230727645      0.63715920979577
  H   2.64833677220658     -0.42920669168900      0.85462300530414
  H   4.84584126233195     -1.31170273739699      2.00407366177868
  H   7.31120331093362     -1.15239707462700      1.85160996373222
  H   6.94583841765975      2.76980044018847      0.09908600188511
  H   4.48708470106230      2.60782274653650      0.25756967608444
  H   9.23792732239841     -0.00866595525788      1.32736853788298
  H   8.94465057282681      1.85919047505009     -1.10409998479782
  H   8.95724749158931      0.07799877391034     -1.14403405284000
  H   10.41475590508611      0.97165970573814     -0.63615240598683
  H   8.17094344182384      1.54388392749592      3.07664160893728
