33
Coordinates from ORCA-job Ibuprofeno\Ibuprofeno_PBE_6-311+G\Ibuprofeno_PBE_6-311+G.orcainp
  C   2.74523074479591      2.02991505013409      3.32179440453806
  C   2.42779659676614      0.66112451785688      2.70487123861345
  C   0.91810757881349      0.38405132052973      2.72542519036371
  C   2.97254660765646      0.53690751907052      1.25829266171359
  C   4.47709865283760      0.63542105913855      1.14572681578914
  C   5.30175582123243     -0.41040257439723      1.59877084627068
  C   6.69634964237514     -0.32141419447184      1.51269978968278
  C   7.31463581958373      0.81773794245246      0.96669619776335
  C   6.49385232379798      1.86565488869193      0.50977069346228
  C   5.10085612320402      1.77308690619509      0.60004160155386
  C   8.83226775852517      0.90212737984068      0.85144900333783
  C   9.32541012319438      0.97009345345423     -0.60129805933348
  C   9.41398282546759      2.04100636997501      1.69836342949976
  O   8.86973875303686      2.20879499961569      2.93283821476316
  O   10.34062013028336      2.75867232016932      1.36108397992321
  H   2.37501957846795      2.08758700889125      4.35795630751125
  H   2.26179343168211      2.83767443289016      2.74517698212724
  H   3.82842173563329      2.22877258039073      3.33760303932224
  H   2.92756897109370     -0.11591407434977      3.31360304026287
  H   0.37659812538479      1.13237788489421      2.12129861652722
  H   0.52136897796792      0.43062350331951      3.75229392851654
  H   0.68762190579181     -0.61235759426885      2.31487845781613
  H   2.50433015553832      1.32030988957798      0.63635760357192
  H   2.64332727641302     -0.43551268032893      0.85128869305525
  H   4.84669482606154     -1.31220532454861      2.01980528332258
  H   7.31640363085493     -1.15076978029357      1.86674817381755
  H   6.94565883860011      2.76407678278801      0.07780103244226
  H   4.48263554342102      2.59921877753820      0.23603085519298
  H   9.24502907879662     -0.01343680217880      1.31751528911280
  H   8.95425902021793      1.87586216729790     -1.10343104036226
  H   8.96143526198816      0.09276502367645     -1.15513643520616
  H   10.42370995870657      0.97885822131782     -0.64097397898643
  H   8.10922418180984      1.59950302513119      3.04503814401459
