33
Coordinates from ORCA-job Ibuprofeno\Ibuprofeno_TPSS_def2-TZVP\Ibuprofeno_TPSS_def2-TZVP.orcainp
  C   2.72332676054443      3.68230638304253      1.61827289589594
  C   2.42442662958754      2.21058966529204      1.93493919234577
  C   0.91710309539907      1.98596902039678      2.12247698854039
  C   2.96951057187190      1.25881371342049      0.83842565643832
  C   4.47512982098993      1.27038724551817      0.69800463799364
  C   5.29182452668055      0.65842154856181      1.65943238045473
  C   6.68270045839830      0.68145760215282      1.54441533347832
  C   7.30437733653982      1.31491563058150      0.45979845322577
  C   6.49179675078710      1.92517532117692     -0.50661745375777
  C   5.10272757085034      1.90158156454242     -0.38640208682865
  C   8.82260953951931      1.31414780715493      0.32507418029383
  C   9.32038556109168      0.52115625935626     -0.89283963429431
  C   9.39620267348839      2.73464829741024      0.33289116186175
  O   8.90585912391824      3.57036808526849      1.28587403967674
  O   10.26382713150254      3.14481433407292     -0.41331157120095
  H   2.35694147862467      4.33216753587670      2.42127659043366
  H   2.22707164727278      3.98341944128127      0.68666566007798
  H   3.79815164581022      3.85950788543158      1.50208978912815
  H   2.92871249090141      1.95092110638350      2.87678771694578
  H   0.37293942988740      2.21991293285562      1.19841502513605
  H   0.52219961346282      2.62914774369359      2.91741935285362
  H   0.70223783304295      0.94412508570235      2.38726491744191
  H   2.51186530976080      1.52964881000215     -0.12197158546608
  H   2.63851202035779      0.24005385034548      1.07936912565539
  H   4.83567137265772      0.15157161985539      2.50753078636128
  H   7.29507327495723      0.19485696699484      2.30093925441668
  H   6.94504251819892      2.42314457390001     -1.36155144534154
  H   4.49254080782816      2.38034895325456     -1.14935808223872
  H   9.22877032465415      0.84893231081559      1.23530174722674
  H   8.94890592904020      0.96036228195677     -1.82349391279864
  H   8.96322713778487     -0.51057467411527     -0.82763054660159
  H   10.41322138679919      0.51412779965404     -0.92587945961347
  H   8.18917822778947      3.12662329816346      1.78323089225925
