33
Coordinates from ORCA-job Dexketoprofen\Dexketoprofen_B3LYP_def2-TZVP\Dexketoprofen_B3LYP_def2-TZVP.orcainp
  H   1.74810847798841     -0.96045956029620     -0.21182646639728
  C   2.08830168641443      0.04349418046222      0.05875064165628
  C   3.19057732500441      0.46636475200728     -0.91788362927924
  C   0.87028094762836      0.95867430278323     -0.04592808906954
  O   -0.27417982119496      0.48935014302590      0.48890638998491
  O   0.87086446530968      2.05313751915811     -0.55409627651293
  C   2.58063944118399     -0.01076022343453      1.50108300990057
  C   2.73007572564994     -1.23665388402311      2.14692171700864
  C   3.23841037511438     -1.30846325449195      3.44770082378555
  C   3.58877761044520     -0.12916551712938      4.11175681024215
  C   3.41570850321739      1.09715480937502      3.48678751366326
  C   2.92034052599571      1.15689006262796      2.18805286795946
  C   3.49546836253584     -2.61508600215456      4.12760371539184
  O   4.43436909532412     -2.71798244543402      4.90764299076771
  C   2.61698945870338     -3.79275263208412      3.85991410635764
  C   1.25126167179510     -3.65770407897775      3.58856213833671
  C   0.45526821399511     -4.78584942837921      3.42234203269617
  C   1.01852578806794     -6.05563524792606      3.50190626583086
  C   2.37990060117884     -6.19877117036853      3.76584937886622
  C   3.17085354409466     -5.07522426223884      3.95639620979219
  H   2.82058452908398      0.45465498864131     -1.94394262338536
  H   4.02869783723800     -0.22740129827523     -0.84372109179182
  H   3.55072937303957      1.47033362178527     -0.69373150568681
  H   -0.15886669325886     -0.40018486987940      0.85767465773023
  H   2.47460424362388     -2.14544461396227      1.61711298570117
  H   3.98580982165310     -0.18372308824108      5.11684101739603
  H   3.66985782176973      2.01165845499949      4.00799003020821
  H   2.80094750349603      2.12085579228519      1.70753323165720
  H   0.80257278184193     -2.67489323699635      3.53201348979126
  H   -0.60421413198283     -4.67202783065494      3.22978607655026
  H   0.39907733364749     -6.93288333670136      3.36080407988480
  H   2.82051404112220     -7.18617776818841      3.82599803605730
  H   4.22634354027380     -5.17859487731362      4.17203946490631
