33
Coordinates from ORCA-job Ibuprofeno\Ibuprofeno_TPSS_6-311+G\Ibuprofeno_TPSS_6-311+G.orcainp
  C   2.57402805213413      2.19799902701343      2.52183716473971
  C   2.31315802703171      1.05783162899834      1.52234729530107
  C   0.80965854642880      0.74145075318818      1.42994022488485
  C   2.87472240656763      1.38410411633244      0.11028071117629
  C   4.38173583430593      1.54030950138429      0.06136804438188
  C   5.22401516784618      0.42489495102276      0.21414256732349
  C   6.61587409485172      0.56110070755252      0.18418602985474
  C   7.21297902186599      1.81941540824134     -0.00451454155405
  C   6.37461642635672      2.93774036407700     -0.16187415923377
  C   4.98375370356558      2.79716920356476     -0.12716583617800
  C   8.73184676399778      1.95568279300389     -0.07218581445324
  C   9.23947357851450      2.38989894341906     -1.46077693400993
  C   9.28777444920338      2.86809196219589      1.03065861367329
  O   8.69147289982317      2.77192599838832      2.25055347686495
  O   10.23676142116170      3.62119799177738      0.90048339595669
  H   2.19197602305893      1.93474808953281      3.51631543874195
  H   2.06827145072135      3.11833219077421      2.19749541738840
  H   3.64521051387291      2.41474260814806      2.61604203839310
  H   2.83152695092933      0.15684319655430      1.88401273672523
  H   0.25328996760755      1.61356831885108      1.05924391063606
  H   0.40488562259915      0.47687751000247      2.41504726512433
  H   0.62256856230810     -0.09647857811534      0.74628706230877
  H   2.39946512930231      2.30487219454288     -0.25575851100694
  H   2.57710891271318      0.57328055413820     -0.56966777279232
  H   4.78744167600633     -0.56314281178907      0.35263249041794
  H   7.24755129940801     -0.31832559869598      0.30073841606192
  H   6.80865969681585      3.92528687718031     -0.31228957890346
  H   4.35437734483240      3.67690046131727     -0.25227398918259
  H   9.15876820153190      0.96739889367680      0.15917865768455
  H   8.85046331630560      3.37855034022500     -1.72762759993845
  H   8.90355072054379      1.66802914784152     -2.21216073130813
  H   10.33298818556405      2.43050013138424     -1.47399240578894
  H   7.91718603222426      2.17529312427158      2.19309691671063
