33
Coordinates from ORCA-job Ibuprofeno\Ibuprofeno_PBE_STO-3G\Ibuprofeno_PBE_STO-3G.orcainp
  C   2.74311281469680      2.12634041783519      3.25961536532764
  C   2.42190467721326      0.69032990094654      2.74282502130868
  C   0.88988752150966      0.40216791355315      2.82011583280313
  C   2.93571181632654      0.47913170019237      1.26805484626239
  C   4.46879060927263      0.57637395511505      1.14179665149143
  C   5.30200204498173     -0.47879964273495      1.60356280319395
  C   6.70646161300646     -0.39368504594803      1.49751123811166
  C   7.33017395707682      0.75222381502866      0.92672838690460
  C   6.49440145918823      1.80984408520974      0.46514722534510
  C   5.09034037664478      1.72136614723695      0.57328428329347
  C   8.86918348740388      0.82733168397680      0.81341079686874
  C   9.38034768251662      1.15123416603779     -0.62521410064541
  C   9.49813807907984      1.88799624055908      1.84895809667788
  O   8.65461386767951      2.22702392775434      2.94662417520856
  O   10.65459072287597      2.38026557456223      1.75751871698125
  H   2.40194533788960      2.24412793570127      4.30532861314979
  H   2.23098283058112      2.88513798403181      2.63827472172295
  H   3.83121251976583      2.32057794096606      3.22163374621986
  H   2.94878056083182     -0.04295952506151      3.39343121875422
  H   0.32990361060142      1.10438071415266      2.17401889942250
  H   0.52807145607325      0.52061574301509      3.85889066123801
  H   0.67009170163369     -0.62975239229017      2.48736539793660
  H   2.46289480103554      1.23544528521989      0.60856642563662
  H   2.60632471868595     -0.52549663232431      0.92713153444458
  H   4.84185032538735     -1.38135372444682      2.04442054183742
  H   7.33644082024342     -1.22776729039335      1.85635657556093
  H   6.95075519549610      2.71112754710235      0.01819912080211
  H   4.46167512462359      2.55145708001365      0.20398183694649
  H   9.27919096161293     -0.16396368668672      1.11518755880319
  H   8.93700907659569      2.09121745847414     -1.00255914161851
  H   9.12122751205782      0.33180723428634     -1.32154789008974
  H   10.48074726500617      1.26835637950564     -0.60113212006764
  H   7.78258545240588      1.70810710940903      2.71289296016749
