33
Coordinates from ORCA-job Ibuprofeno\Ibuprofeno_TPSS_STO-3G\Ibuprofeno_TPSS_STO-3G.orcainp
  C   2.57104572459115      2.32664315043722      2.48253394592649
  C   2.30191355266429      1.08452083492052      1.57046425279967
  C   0.77361227595915      0.74717128743363      1.53119324667422
  C   2.83971678966661      1.31124965786998      0.10181363020362
  C   4.37533981988729      1.47369162875936      0.03344679997677
  C   5.23038956031536      0.34972210320281      0.19052338489726
  C   6.63324247454016      0.49268717311094      0.13981354883742
  C   7.23196599968929      1.76646038171678     -0.06891269046733
  C   6.37487578551190      2.89203460097833     -0.22910016301201
  C   4.97255439565135      2.74563724698003     -0.17670551906253
  C   8.77304224448745      1.90546364370498     -0.12589845648226
  C   9.29094223167419      2.58481539313045     -1.43895607812926
  C   9.35698178078033      2.69998290428072      1.15017193743098
  O   8.51446773837068      2.69349404001232      2.30564535099395
  O   10.48011419664400      3.26841189880183      1.19171486262634
  H   2.21017789879754      2.13201275712100      3.50902334002793
  H   2.04500961010771      3.21624684788993      2.09047626451952
  H   3.65202810505710      2.55106369848315      2.52835069730678
  H   2.84028407194243      0.21230509758174      1.99852766683856
  H   0.20159723859455      1.58933237319797      1.10056071063947
  H   0.39638014292636      0.55525634365445      2.55243559408914
  H   0.59011495201318     -0.15189927830027      0.91489375120368
  H   2.35571255538552      2.21127344899415     -0.32572114459466
  H   2.54073880256179      0.43738171217807     -0.51264641924462
  H   4.79110829695695     -0.64993138584709      0.34805850308440
  H   7.27899968841953     -0.39406163365171      0.25964797463967
  H   6.81081424168772      3.89206364376896     -0.39252250267764
  H   4.32874374636588      3.63203519184525     -0.30647999338868
  H   9.20785035360679      0.88317254379897     -0.06826568815854
  H   8.83265963397425      3.58052139004878     -1.57627218161803
  H   9.04811444771226      1.95765161942454     -2.31609929457595
  H   10.38814923733637      2.70767749230024     -1.37859860423375
  H   7.66847240612072      2.20200219217193      1.95248327292938
