33
Coordinates from ORCA-job Ibuprofeno\Ibuprofeno_B3LYP_STO-3G\Ibuprofeno_B3LYP_STO-3G.orcainp
  C   2.70240359879334     -3.84658609021325     -0.11836907975469
  C   2.36889332338722     -2.67588278558843     -1.09454308594259
  C   0.83196886217595     -2.59574422905457     -1.35849742460919
  C   2.89368793709352     -1.29578842378821     -0.54498300746474
  C   4.43059688472885     -1.23715846156320     -0.41988893447923
  C   5.24217711619538     -1.08359062420986     -1.56962253709551
  C   6.64506732029809     -1.04201713995101     -1.46407093779737
  C   7.28210826955422     -1.15201261779372     -0.20396017221245
  C   6.47041877920604     -1.30502475626527      0.94805340025221
  C   5.06875280759860     -1.34704320970614      0.83984828295920
  C   8.82530161923676     -1.09658590432958     -0.09591944989134
  C   9.33369805895699      0.08557291979466      0.78940704942127
  C   9.43356290936654     -2.47026649177608      0.45336141544327
  O   8.74664929529691     -3.64746524650239      0.05414156948044
  O   10.46079116694615     -2.56583755046891      1.16072453755304
  H   2.34994461639684     -4.80319244190853     -0.53429518396174
  H   2.21188958108087     -3.68896330862381      0.85478097680839
  H   3.78822205397148     -3.91734956080737      0.04705814391984
  H   2.87621948238048     -2.87150906669304     -2.05881587475707
  H   0.28904982416421     -2.38841802934705     -0.42314394582582
  H   0.46347716885056     -3.54852215748185     -1.76963791190144
  H   0.60370942759418     -1.79413963814744     -2.07805479992039
  H   2.43818180068836     -1.10549196216492      0.44215635670485
  H   2.55679914374956     -0.49960316739381     -1.23321175636762
  H   4.76998707052641     -0.99034356614221     -2.55766380750339
  H   7.25677255599902     -0.91864352976210     -2.36909483152621
  H   6.94120382318917     -1.39378951248380      1.93720589403037
  H   4.45778655178084     -1.46286820213325      1.74599215828747
  H   9.23292428661120     -0.96824455903487     -1.11874216454880
  H   8.89620829541302      0.03514347091201      1.79795080110382
  H   9.05956067036529      1.04896685999079      0.33254149695001
  H   10.42982713348422      0.03225658141824      0.88093525799659
  H   7.93952856491958     -3.29150759878096     -0.47018243535116
